25

C -3.529984 -0.127455 -0.423208
C -2.815504 0.794998 -1.139039
C -1.445252 0.845162 -0.984774
C -0.762579 0.001110 -0.136044
C -1.516244 -0.919789 0.572820
C -2.892932 -0.988996 0.434630
Br -3.881060 -2.277476 1.436080
C 0.679342 0.037837 0.034939
C 1.225306 0.011015 1.322989
C 2.583920 0.040095 1.543710
C 3.430808 0.097513 0.457442
C 2.943780 0.125369 -0.815594
C 1.575623 0.095100 -1.008790
Br 4.173014 0.205231 -2.283748
Br 3.343138 0.004176 3.292179
Br -0.463205 2.123307 -1.970167
H -4.609381 -0.148284 -0.561344
H -3.341356 1.463586 -1.809318
H -0.999227 -1.584663 1.238536
H 0.581659 -0.033839 2.186184
H 4.500463 0.120346 0.634502
H 1.219670 0.115657 -2.021984

He -1.45 0.85 -0.98
He 2.58 0.04 1.54
He 2.94 0.13 -0.82