
     RDKit          3D

  0  0  0  0  0  0  0  0  0  0999 V3000
M  V30 BEGIN CTAB
M  V30 COUNTS 30 32 0 0 0
M  V30 BEGIN ATOM
M  V30 1 C -3.6018 -0.7250 -0.4047 0
M  V30 2 C -4.8045 -0.0746 -0.5674 0
M  V30 3 C -4.8465 1.2799 -0.3602 0
M  V30 4 N -3.7530 1.9608 -0.0090 0
M  V30 5 C -2.5700 1.3144 0.1498 0
M  V30 6 C -2.4526 -0.0423 -0.0410 0
M  V30 7 C -1.1568 -0.6633 0.1476 0
M  V30 8 C -1.0667 -1.9589 0.6130 0
M  V30 9 C 0.1862 -2.5203 0.7836 0
M  V30 10 C 1.3286 -1.8002 0.4941 0
M  V30 11 C 1.2573 -0.5023 0.0273 0
M  V30 12 C 2.4768 0.2395 -0.2706 0
M  V30 13 C 3.6337 -0.3269 -0.7264 0
M  V30 14 C 4.7169 0.4968 -0.9686 0
M  V30 15 C 4.6565 1.8504 -0.7643 0
M  V30 16 N 3.5112 2.3851 -0.3166 0
M  V30 17 C 2.4358 1.6045 -0.0711 0
M  V30 18 C 0.0006 0.0437 -0.1374 0
M  V30 19 H -3.5321 -1.8036 -0.5613 0
M  V30 20 H -5.6944 -0.5937 -0.8483 0
M  V30 21 H -5.7831 1.8474 -0.4766 0
M  V30 22 H -1.7267 1.9351 0.4357 0
M  V30 23 H -1.9719 -2.5096 0.8345 0
M  V30 24 H 0.2046 -3.5430 1.1528 0
M  V30 25 H 2.2933 -2.2453 0.6295 0
M  V30 26 H 3.6658 -1.4084 -0.8850 0
M  V30 27 H 5.6259 0.0610 -1.3237 0
M  V30 28 H 5.4749 2.5259 -0.9405 0
M  V30 29 H 1.5454 2.1085 0.2888 0
M  V30 30 H -0.0535 1.0642 -0.5042 0
M  V30 END ATOM
M  V30 BEGIN BOND
M  V30 1 2 1 2
M  V30 2 1 2 3
M  V30 3 2 3 4
M  V30 4 1 4 5
M  V30 5 2 5 6
M  V30 6 1 6 7
M  V30 7 2 7 8
M  V30 8 1 8 9
M  V30 9 2 9 10
M  V30 10 1 10 11
M  V30 11 1 11 12
M  V30 12 2 12 13
M  V30 13 1 13 14
M  V30 14 2 14 15
M  V30 15 1 15 16
M  V30 16 2 16 17
M  V30 17 2 11 18
M  V30 18 1 6 1
M  V30 19 1 18 7
M  V30 20 1 17 12
M  V30 21 1 1 19
M  V30 22 1 2 20
M  V30 23 1 3 21
M  V30 24 1 5 22
M  V30 25 1 8 23
M  V30 26 1 9 24
M  V30 27 1 10 25
M  V30 28 1 13 26
M  V30 29 1 14 27
M  V30 30 1 15 28
M  V30 31 1 17 29
M  V30 32 1 18 30
M  V30 END BOND
M  V30 END CTAB
M  END

$$$$
