
     RDKit          3D

  0  0  0  0  0  0  0  0  0  0999 V3000
M  V30 BEGIN CTAB
M  V30 COUNTS 30 32 0 0 0
M  V30 BEGIN ATOM
M  V30 1 C 3.4524 -1.4398 -0.3751 0
M  V30 2 C 4.8222 -1.5457 -0.4791 0
M  V30 3 C 5.5899 -0.4146 -0.3289 0
M  V30 4 N 5.0458 0.7913 -0.0838 0
M  V30 5 C 3.7094 0.8925 0.0172 0
M  V30 6 C 2.8886 -0.2086 -0.1242 0
M  V30 7 C 1.4266 -0.0625 -0.0071 0
M  V30 8 C 0.6340 -1.0704 0.4994 0
M  V30 9 C -0.7387 -0.9071 0.5937 0
M  V30 10 C -1.3755 0.2496 0.1944 0
M  V30 11 C -2.8269 0.4050 0.3043 0
M  V30 12 C -3.3725 1.6641 0.5282 0
M  V30 13 N -4.6958 1.8690 0.6382 0
M  V30 14 C -5.5905 0.8685 0.5384 0
M  V30 15 C -5.0896 -0.3915 0.3169 0
M  V30 16 C -3.7190 -0.6392 0.1981 0
M  V30 17 C -0.5778 1.2554 -0.3117 0
M  V30 18 C 0.7889 1.0937 -0.4061 0
M  V30 19 H 2.8264 -2.3080 -0.4882 0
M  V30 20 H 5.2926 -2.5215 -0.6792 0
M  V30 21 H 6.6743 -0.5030 -0.4120 0
M  V30 22 H 3.2498 1.8507 0.2133 0
M  V30 23 H 1.1089 -1.9789 0.8163 0
M  V30 24 H -1.3791 -1.6961 0.9943 0
M  V30 25 H -2.7116 2.5173 0.6168 0
M  V30 26 H -6.6652 1.0234 0.6242 0
M  V30 27 H -5.7991 -1.2216 0.2335 0
M  V30 28 H -3.3336 -1.6208 0.0284 0
M  V30 29 H -1.0652 2.1720 -0.6284 0
M  V30 30 H 1.4301 1.8768 -0.8019 0
M  V30 END ATOM
M  V30 BEGIN BOND
M  V30 1 2 1 2
M  V30 2 1 2 3
M  V30 3 2 3 4
M  V30 4 1 4 5
M  V30 5 2 5 6
M  V30 6 1 6 7
M  V30 7 2 7 8
M  V30 8 1 8 9
M  V30 9 2 9 10
M  V30 10 1 10 11
M  V30 11 2 11 12
M  V30 12 1 12 13
M  V30 13 2 13 14
M  V30 14 1 14 15
M  V30 15 2 15 16
M  V30 16 1 10 17
M  V30 17 2 17 18
M  V30 18 1 6 1
M  V30 19 1 18 7
M  V30 20 1 16 11
M  V30 21 1 1 19
M  V30 22 1 2 20
M  V30 23 1 3 21
M  V30 24 1 5 22
M  V30 25 1 8 23
M  V30 26 1 9 24
M  V30 27 1 12 25
M  V30 28 1 14 26
M  V30 29 1 15 27
M  V30 30 1 16 28
M  V30 31 1 17 29
M  V30 32 1 18 30
M  V30 END BOND
M  V30 END CTAB
M  END

$$$$
