
     RDKit          3D

  0  0  0  0  0  0  0  0  0  0999 V3000
M  V30 BEGIN CTAB
M  V30 COUNTS 29 28 0 0 0
M  V30 BEGIN ATOM
M  V30 1 N -4.1847 1.6225 -0.0681 0
M  V30 2 C -3.3455 0.8191 0.7965 0
M  V30 3 C -2.5788 -0.1446 -0.0891 0
M  V30 4 N -1.7326 -0.9568 0.7612 0
M  V30 5 C -0.9956 -1.8978 -0.0136 0
M  V30 6 C 0.0529 -1.3004 -0.9124 0
M  V30 7 N 1.0498 -0.5627 -0.2087 0
M  V30 8 H -5.1995 1.4531 0.1918 0
M  V30 9 H -4.0635 1.3969 -1.0816 0
M  V30 10 H -2.6527 1.4235 1.4167 0
M  V30 11 H -3.9685 0.1806 1.4692 0
M  V30 12 H -3.2670 -0.8087 -0.6488 0
M  V30 13 H -1.9362 0.3796 -0.8129 0
M  V30 14 H -1.1420 -0.3954 1.3831 0
M  V30 15 H -0.5255 -2.6526 0.6710 0
M  V30 16 H -1.6738 -2.4878 -0.6630 0
M  V30 17 H 0.5528 -2.1117 -1.4802 0
M  V30 18 H -0.4008 -0.6351 -1.6581 0
M  V30 19 C 1.5373 0.4721 -0.7567 0
M  V30 20 C 2.5824 1.3160 -0.1131 0
M  V30 21 C 3.9683 0.8500 -0.4180 0
M  V30 22 C 4.2046 -0.5448 0.0531 0
M  V30 23 O 5.2711 -1.1021 -0.1021 0
M  V30 24 H 1.1831 0.7599 -1.7342 0
M  V30 25 H 2.5103 2.3809 -0.3841 0
M  V30 26 H 2.4327 1.1955 0.9856 0
M  V30 27 H 4.6818 1.5049 0.1211 0
M  V30 28 H 4.2175 0.9556 -1.5121 0
M  V30 29 H 3.4220 -1.1097 0.5540 0
M  V30 END ATOM
M  V30 BEGIN BOND
M  V30 1 1 1 2
M  V30 2 1 2 3
M  V30 3 1 3 4
M  V30 4 1 4 5
M  V30 5 1 5 6
M  V30 6 1 6 7
M  V30 7 1 1 8
M  V30 8 1 1 9
M  V30 9 1 2 10
M  V30 10 1 2 11
M  V30 11 1 3 12
M  V30 12 1 3 13
M  V30 13 1 4 14
M  V30 14 1 5 15
M  V30 15 1 5 16
M  V30 16 1 6 17
M  V30 17 1 6 18
M  V30 18 1 19 20
M  V30 19 1 20 21
M  V30 20 1 21 22
M  V30 21 2 22 23
M  V30 22 1 19 24
M  V30 23 1 20 25
M  V30 24 1 20 26
M  V30 25 1 21 27
M  V30 26 1 21 28
M  V30 27 1 22 29
M  V30 28 2 7 19
M  V30 END BOND
M  V30 END CTAB
M  END

$$$$
