
     RDKit          3D

  0  0  0  0  0  0  0  0  0  0999 V3000
M  V30 BEGIN CTAB
M  V30 COUNTS 44 48 0 0 0
M  V30 BEGIN ATOM
M  V30 1 C -6.2085 -0.8415 1.0626 0
M  V30 2 C -5.4467 0.2500 1.4676 0
M  V30 3 C -4.1065 0.3435 1.0882 0
M  V30 4 C -3.5092 -0.6538 0.2982 0
M  V30 5 C -2.1562 -0.5752 -0.0948 0
M  V30 6 C -1.5331 -1.5523 -0.9002 0
M  V30 7 C -2.3372 -2.6458 -1.2725 0
M  V30 8 C -3.6833 -2.7466 -0.8939 0
M  V30 9 C -4.2832 -1.7566 -0.1104 0
M  V30 10 C -5.6307 -1.8402 0.2781 0
M  V30 11 C -0.0843 -1.4766 -1.2706 0
M  V30 12 C 0.8164 -0.5905 -0.6200 0
M  V30 13 C 2.1731 -0.3768 -0.9754 0
M  V30 14 C 2.6482 -1.3022 -1.9237 0
M  V30 15 C 1.8073 -2.1807 -2.6140 0
M  V30 16 C 0.4519 -2.2386 -2.3131 0
M  V30 17 C 3.1093 0.4782 -0.1308 0
M  V30 18 C 4.5030 0.4141 -0.3717 0
M  V30 19 C 5.4390 1.0737 0.4234 0
M  V30 20 C 5.0122 1.8956 1.4493 0
M  V30 21 C 3.6544 2.1633 1.6119 0
M  V30 22 C 3.2810 3.1135 2.5790 0
M  V30 23 C 1.9650 3.5430 2.6968 0
M  V30 24 C 1.0184 3.0548 1.8159 0
M  V30 25 C 1.3818 2.0908 0.8676 0
M  V30 26 C 2.6877 1.5323 0.7742 0
M  V30 27 H -7.2520 -0.9171 1.3569 0
M  V30 28 H -5.8937 1.0293 2.0791 0
M  V30 29 H -3.5278 1.2042 1.4160 0
M  V30 30 H -1.5992 0.3028 0.2219 0
M  V30 31 H -1.9299 -3.4704 -1.8513 0
M  V30 32 H -4.2533 -3.6163 -1.2130 0
M  V30 33 H -6.2401 -2.6869 -0.0293 0
M  V30 34 H 0.4573 -0.1455 0.3009 0
M  V30 35 H 3.6915 -1.3325 -2.2198 0
M  V30 36 H 2.2169 -2.8201 -3.3923 0
M  V30 37 H -0.1638 -2.9086 -2.9050 0
M  V30 38 H 4.9241 -0.2366 -1.1304 0
M  V30 39 H 6.5015 0.9257 0.2488 0
M  V30 40 H 5.7573 2.3830 2.0740 0
M  V30 41 H 4.0291 3.5570 3.2336 0
M  V30 42 H 1.6958 4.2901 3.4377 0
M  V30 43 H -0.0005 3.4317 1.8438 0
M  V30 44 H 0.6173 1.8346 0.1408 0
M  V30 END ATOM
M  V30 BEGIN BOND
M  V30 1 2 1 2
M  V30 2 1 2 3
M  V30 3 2 3 4
M  V30 4 1 4 5
M  V30 5 2 5 6
M  V30 6 1 6 7
M  V30 7 2 7 8
M  V30 8 1 8 9
M  V30 9 2 9 10
M  V30 10 1 6 11
M  V30 11 2 11 12
M  V30 12 1 12 13
M  V30 13 2 13 14
M  V30 14 1 14 15
M  V30 15 2 15 16
M  V30 16 1 13 17
M  V30 17 2 17 18
M  V30 18 1 18 19
M  V30 19 2 19 20
M  V30 20 1 20 21
M  V30 21 2 21 22
M  V30 22 1 22 23
M  V30 23 2 23 24
M  V30 24 1 24 25
M  V30 25 2 25 26
M  V30 26 1 10 1
M  V30 27 1 9 4
M  V30 28 1 16 11
M  V30 29 1 26 17
M  V30 30 1 26 21
M  V30 31 1 1 27
M  V30 32 1 2 28
M  V30 33 1 3 29
M  V30 34 1 5 30
M  V30 35 1 7 31
M  V30 36 1 8 32
M  V30 37 1 10 33
M  V30 38 1 12 34
M  V30 39 1 14 35
M  V30 40 1 15 36
M  V30 41 1 16 37
M  V30 42 1 18 38
M  V30 43 1 19 39
M  V30 44 1 20 40
M  V30 45 1 22 41
M  V30 46 1 23 42
M  V30 47 1 24 43
M  V30 48 1 25 44
M  V30 END BOND
M  V30 END CTAB
M  END

$$$$
