
     RDKit          3D

  0  0  0  0  0  0  0  0  0  0999 V3000
M  V30 BEGIN CTAB
M  V30 COUNTS 30 32 0 0 0
M  V30 BEGIN ATOM
M  V30 1 C -0.0513 -2.5978 0.4827 0
M  V30 2 C 1.1820 -1.9798 0.4223 0
M  V30 3 C 1.1966 -0.6272 0.1540 0
M  V30 4 C 0.0185 0.0614 -0.0428 0
M  V30 5 C -1.2217 -0.5498 0.0158 0
M  V30 6 C -1.2360 -1.9035 0.2845 0
M  V30 7 C -2.4647 0.1893 -0.1944 0
M  V30 8 C -2.4958 1.2740 -1.0568 0
M  V30 9 N -3.6197 1.9816 -1.2790 0
M  V30 10 C -4.7818 1.6802 -0.6782 0
M  V30 11 C -4.7950 0.6085 0.1875 0
M  V30 12 C -3.6526 -0.1335 0.4316 0
M  V30 13 C 2.5025 0.0209 0.0896 0
M  V30 14 C 2.5873 1.0997 -0.7837 0
M  V30 15 N 3.7609 1.7541 -0.9019 0
M  V30 16 C 4.8488 1.3971 -0.2035 0
M  V30 17 C 4.7837 0.3321 0.6652 0
M  V30 18 C 3.5908 -0.3696 0.8161 0
M  V30 19 H -0.0580 -3.6726 0.6961 0
M  V30 20 H 2.0713 -2.5731 0.5861 0
M  V30 21 H 0.0300 1.1200 -0.2529 0
M  V30 22 H -2.1986 -2.4128 0.3369 0
M  V30 23 H -1.5748 1.5397 -1.5541 0
M  V30 24 H -5.6991 2.2469 -0.8523 0
M  V30 25 H -5.7174 0.3270 0.6988 0
M  V30 26 H -3.6271 -0.9762 1.1012 0
M  V30 27 H 1.7443 1.4286 -1.3674 0
M  V30 28 H 5.7705 1.9254 -0.3082 0
M  V30 29 H 5.6246 0.0209 1.2340 0
M  V30 30 H 3.4816 -1.2117 1.4816 0
M  V30 END ATOM
M  V30 BEGIN BOND
M  V30 1 2 1 2
M  V30 2 1 2 3
M  V30 3 2 3 4
M  V30 4 1 4 5
M  V30 5 2 5 6
M  V30 6 1 5 7
M  V30 7 2 7 8
M  V30 8 1 8 9
M  V30 9 2 9 10
M  V30 10 1 10 11
M  V30 11 2 11 12
M  V30 12 1 3 13
M  V30 13 2 13 14
M  V30 14 1 14 15
M  V30 15 2 15 16
M  V30 16 1 16 17
M  V30 17 2 17 18
M  V30 18 1 6 1
M  V30 19 1 12 7
M  V30 20 1 18 13
M  V30 21 1 1 19
M  V30 22 1 2 20
M  V30 23 1 4 21
M  V30 24 1 6 22
M  V30 25 1 8 23
M  V30 26 1 10 24
M  V30 27 1 11 25
M  V30 28 1 12 26
M  V30 29 1 14 27
M  V30 30 1 16 28
M  V30 31 1 17 29
M  V30 32 1 18 30
M  V30 END BOND
M  V30 END CTAB
M  END

$$$$
