
     RDKit          3D

  0  0  0  0  0  0  0  0  0  0999 V3000
M  V30 BEGIN CTAB
M  V30 COUNTS 11 10 0 0 0
M  V30 BEGIN ATOM
M  V30 1 C 1.1979 -0.1986 -0.0740 0
M  V30 2 C -0.0318 0.7084 0.0398 0
M  V30 3 C -1.2175 -0.2638 0.0531 0
M  V30 4 H 1.3145 -0.4061 -1.1514 0
M  V30 5 H 1.0055 -1.1894 0.4078 0
M  V30 6 H 2.0760 0.2264 0.4134 0
M  V30 7 H 0.0445 1.2683 0.9901 0
M  V30 8 H -0.0925 1.4049 -0.8174 0
M  V30 9 H -1.0181 -0.9453 0.9153 0
M  V30 10 H -2.1780 0.2562 0.1150 0
M  V30 11 H -1.1005 -0.8612 -0.8916 0
M  V30 END ATOM
M  V30 BEGIN BOND
M  V30 1 1 1 2
M  V30 2 1 2 3
M  V30 3 1 1 4
M  V30 4 1 1 5
M  V30 5 1 1 6
M  V30 6 1 2 7
M  V30 7 1 2 8
M  V30 8 1 3 9
M  V30 9 1 3 10
M  V30 10 1 3 11
M  V30 END BOND
M  V30 END CTAB
M  END

$$$$
