
     RDKit          3D

  0  0  0  0  0  0  0  0  0  0999 V3000
M  V30 BEGIN CTAB
M  V30 COUNTS 18 19 0 0 0
M  V30 BEGIN ATOM
M  V30 1 C -1.1662 -1.3523 -0.0000 0
M  V30 2 C 0.0394 -0.6868 0.0000 0
M  V30 3 C 1.2289 -1.3850 0.0000 0
M  V30 4 C 2.4189 -0.6925 -0.0000 0
M  V30 5 C 2.3721 0.6904 0.0000 0
M  V30 6 C 1.1813 1.3884 0.0000 0
M  V30 7 C -0.0161 0.7015 0.0000 0
M  V30 8 C -1.2079 1.3883 0.0000 0
M  V30 9 C -2.3976 0.6947 -0.0000 0
M  V30 10 C -2.3934 -0.6925 0.0000 0
M  V30 11 Br -4.0375 -1.6701 -0.0000 0
M  V30 12 I -4.2379 1.7151 -0.0000 0
M  V30 13 Br 4.0296 1.6624 0.0000 0
M  V30 14 I 4.2728 -1.7199 0.0000 0
M  V30 15 H -1.1816 -2.4284 0.0000 0
M  V30 16 H 1.2583 -2.4783 -0.0000 0
M  V30 17 H 1.1519 2.4670 0.0000 0
M  V30 18 H -1.2111 2.4679 -0.0000 0
M  V30 END ATOM
M  V30 BEGIN BOND
M  V30 1 2 1 2
M  V30 2 1 2 3
M  V30 3 2 3 4
M  V30 4 1 4 5
M  V30 5 2 5 6
M  V30 6 1 6 7
M  V30 7 2 7 8
M  V30 8 1 8 9
M  V30 9 2 9 10
M  V30 10 1 10 11
M  V30 11 1 9 12
M  V30 12 1 5 13
M  V30 13 1 4 14
M  V30 14 1 10 1
M  V30 15 1 7 2
M  V30 16 1 1 15
M  V30 17 1 3 16
M  V30 18 1 6 17
M  V30 19 1 8 18
M  V30 END BOND
M  V30 END CTAB
M  END

$$$$
