
     RDKit          3D

  0  0  0  0  0  0  0  0  0  0999 V3000
M  V30 BEGIN CTAB
M  V30 COUNTS 18 19 0 0 0
M  V30 BEGIN ATOM
M  V30 1 C -1.1669 -1.3465 0.0000 0
M  V30 2 C 0.0396 -0.6784 0.0000 0
M  V30 3 C 1.2187 -1.3890 0.0000 0
M  V30 4 C 2.4009 -0.6920 0.0000 0
M  V30 5 C 2.3803 0.6910 -0.0000 0
M  V30 6 C 1.1806 1.3864 -0.0000 0
M  V30 7 C -0.0182 0.7044 0.0000 0
M  V30 8 C -1.2063 1.3960 0.0000 0
M  V30 9 C -2.3917 0.6930 0.0000 0
M  V30 10 C -2.3896 -0.6920 -0.0000 0
M  V30 11 Br -4.0463 -1.6346 -0.0000 0
M  V30 12 Br -4.0709 1.5903 0.0000 0
M  V30 13 Br 4.0046 1.7046 0.0000 0
M  V30 14 Br 4.1007 -1.6001 -0.0000 0
M  V30 15 H -1.1668 -2.4426 -0.0000 0
M  V30 16 H 1.2399 -2.4696 0.0000 0
M  V30 17 H 1.1557 2.4837 0.0000 0
M  V30 18 H -1.2682 2.4756 0.0000 0
M  V30 END ATOM
M  V30 BEGIN BOND
M  V30 1 2 1 2
M  V30 2 1 2 3
M  V30 3 2 3 4
M  V30 4 1 4 5
M  V30 5 2 5 6
M  V30 6 1 6 7
M  V30 7 2 7 8
M  V30 8 1 8 9
M  V30 9 2 9 10
M  V30 10 1 10 11
M  V30 11 1 9 12
M  V30 12 1 5 13
M  V30 13 1 4 14
M  V30 14 1 10 1
M  V30 15 1 7 2
M  V30 16 1 1 15
M  V30 17 1 3 16
M  V30 18 1 6 17
M  V30 19 1 8 18
M  V30 END BOND
M  V30 END CTAB
M  END

$$$$
