110

C -1.096419 1.676709 4.076150
C -0.218355 1.939457 5.106485
C 0.905750 1.181339 5.327757
C 1.119270 0.131204 4.460863
C 0.251369 -0.138688 3.432848
C -0.889942 0.643404 3.220828
N -1.730912 0.282607 2.154306
C -3.064998 -0.153135 2.311718
C -3.775679 -0.765766 1.292959
C -5.084566 -1.174301 1.473506
C -5.754832 -1.000309 2.663694
C -5.069084 -0.395881 3.689084
C -3.749895 0.015257 3.504245
Br -7.566600 -1.570902 2.891582
C -1.178175 0.374809 0.826031
C -1.704885 0.797600 -0.311168
C -0.967970 0.744959 -1.423382
C 0.261180 0.278751 -1.379619
S 0.472876 -0.152164 0.398046
N 1.318639 0.033861 -2.311165
C 2.639741 -0.273758 -1.809415
C 3.597219 0.706702 -1.692099
C 4.871546 0.402923 -1.208741
C 5.182034 -0.893220 -0.842117
C 4.229008 -1.880643 -0.956019
C 2.961605 -1.556457 -1.441392
Br 6.930393 -1.328625 -0.174300
C 1.191101 0.007060 -3.707602
C 0.002531 -0.392222 -4.271266
C -0.158360 -0.415653 -5.656447
C 0.901822 -0.030368 -6.449321
C 2.091743 0.368040 -5.866671
C 2.237704 0.387634 -4.510193
Br 0.670349 -0.068782 -8.333799
Br 2.126427 1.547212 6.759192
H -1.970480 2.324281 3.937490
H -0.374158 2.770210 5.806162
H 1.998056 -0.471077 4.623643
H 0.476006 -0.975253 2.791627
H -3.280855 -0.947939 0.325873
H -5.589430 -1.645112 0.642698
H -5.567759 -0.240094 4.652837
H -3.295523 0.467888 4.366055
H -2.746161 1.203364 -0.302021
H -1.373391 1.108543 -2.400608
H 3.363578 1.708508 -1.969615
H 5.612852 1.187893 -1.123381
H 4.455662 -2.901943 -0.673205
H 2.219270 -2.316166 -1.532046
H -0.860346 -0.723628 -3.684264
H -1.093995 -0.730523 -6.056543
H 2.893624 0.660796 -6.559526
H 3.195223 0.707784 -4.118426

C 3.998347 1.419417 1.630982
C 4.293758 2.761402 1.746892
C 3.772782 3.706472 0.896749
C 2.929346 3.246012 -0.091416
C 2.629473 1.912734 -0.215328
C 3.168769 0.962074 0.659095
N 2.819863 -0.382457 0.446072
C 3.741838 -1.392266 0.092967
C 3.346386 -2.631191 -0.383415
C 4.272168 -3.604283 -0.713114
C 5.629023 -3.404250 -0.590595
C 6.044641 -2.181993 -0.121173
C 5.109273 -1.203027 0.210747
Br 6.892841 -4.764950 -1.050236
C 1.430260 -0.730622 0.607674
C 0.853086 -1.786022 1.157580
C -0.479200 -1.873699 1.144700
C -1.198301 -0.921104 0.591953
S 0.079070 0.267506 0.003629
N -2.584989 -0.666289 0.350844
C -2.991418 0.650486 -0.088033
C -3.454419 1.583318 0.810456
C -3.847119 2.852356 0.380158
C -3.772782 3.182614 -0.960068
C -3.309916 2.254631 -1.866069
C -2.922538 0.992018 -1.415800
Br -4.308283 4.924556 -1.569328
C -3.620261 -1.607548 0.447105
C -3.359520 -2.930411 0.178985
C -4.365585 -3.891032 0.280002
C -5.629023 -3.484836 0.653914
C -5.875484 -2.149609 0.919521
C -4.883332 -1.218447 0.818073
Br -6.990269 -4.802390 0.785721
Br 4.182735 5.571593 1.058562
H 4.431359 0.710680 2.347046
H 4.964120 3.144394 2.526574
H 2.513721 3.977710 -0.764751
H 1.963894 1.618795 -1.010358
H 2.273050 -2.837518 -0.520057
H 3.905166 -4.552347 -1.078185
H 7.117045 -1.983486 -0.010223
H 5.531070 -0.278343 0.558731
H 1.499321 -2.564167 1.632820
H -1.003711 -2.743159 1.614227
H -3.511048 1.336596 1.845414
H -4.209346 3.574014 1.101960
H -3.245293 2.496942 -2.920355
H -2.563321 0.269018 -2.111983
H -2.378051 -3.297844 -0.138301
H -4.125619 -4.906288 0.064824
H -6.905235 -1.898091 1.211273
H -5.143040 -0.190266 1.037656

He 10.84 10.84 0.0
He 10.84 -10.84 0.0
He -10.84 -10.84 0.0
He -10.84 10.84 0.0