
     RDKit          3D

  0  0  0  0  0  0  0  0  0  0999 V3000
M  V30 BEGIN CTAB
M  V30 COUNTS 13 12 0 0 0
M  V30 BEGIN ATOM
M  V30 1 C -0.7761 1.0439 0.3292 0
M  V30 2 C -0.2035 -0.0935 -0.4560 0
M  V30 3 C 1.1454 -0.3955 0.1203 0
M  V30 4 O 1.4496 -1.5511 0.5393 0
M  V30 5 O 2.1371 0.5720 0.2278 0
M  V30 6 N -0.9869 -1.2896 -0.4262 0
M  V30 7 H -0.1819 1.9493 0.0912 0
M  V30 8 H -0.6847 0.8331 1.4276 0
M  V30 9 H -1.8340 1.2532 0.1088 0
M  V30 10 H -0.1035 0.2120 -1.5271 0
M  V30 11 H 3.0964 0.3092 0.0385 0
M  V30 12 H -1.2127 -1.6042 0.5443 0
M  V30 13 H -1.8453 -1.2389 -1.0178 0
M  V30 END ATOM
M  V30 BEGIN BOND
M  V30 1 1 1 2
M  V30 2 1 2 3
M  V30 3 2 3 4
M  V30 4 1 3 5
M  V30 5 1 2 6
M  V30 6 1 1 7
M  V30 7 1 1 8
M  V30 8 1 1 9
M  V30 9 1 2 10
M  V30 10 1 5 11
M  V30 11 1 6 12
M  V30 12 1 6 13
M  V30 END BOND
M  V30 END CTAB
M  END

$$$$
